!This is an automatically generated mechanism using RMG
!Created on	Thu, 25 Mar 2010 15:23
ELEMENTS
C H N 
!Total elements:3
END
SPECIES
C6H10M1	CH4M2	H2M3	N2M4	CH3J6	
C5H7J5	C6H9J9	C6H8M111	C5H8M68	HJ10	
!Total species:10
END
REACTIONS KJOULES/MOLE MOLECULES
C6H10M1(+M)<=>C5H7J5+CH3J6(+M)	0.0	0.0	0.0 !USING CHEBYSHEV COEFFICIENT, THE ARRHENIUS EXPRESSION IS REPLACED
TCHEB/ 300.000	2000.000/
PCHEB/   0.010	  98.692/
CHEB/4	4	-14.0098084133	 0.34134604 -0.02835317  0.00378926/
CHEB/  2.01491506E+01   4.62536801E-01  -5.44921239E-02   7.50266908E-03/
CHEB/-0.89236796  0.47309148 -0.0328484   0.00412385/
CHEB/ -8.54621186E-01   4.00755532E-01  -2.06645427E-03  -3.12578137E-04/
C6H10M1+CH3J6<=>CH4M2+C6H9J9	   2.730E+13	0.00	  -4.351E+04	
!ALTERNATIVE REACTION CONSTANT SET 1:   8.100E+05	1.87	   2.154E+04	
!ALTERNATIVE REACTION CONSTANT SET 2:   1.000E+05	0.00	  -4.184E+04	
C6H9J9+C6H9J9<=>C6H10M1+C6H8M111	   3.000E+11	0.00	  -0.000E+00	
CH3J6+C6H9J9<=>CH4M2+C6H8M111	   9.410E+10	0.68	  -0.000E+00	
!ALTERNATIVE REACTION CONSTANT SET 1:   3.000E+11	0.00	  -0.000E+00	
C6H10M1(+M)<=>C5H7J5+CH3J6(+M)	0.0	0.0	0.0 !USING CHEBYSHEV COEFFICIENT, THE ARRHENIUS EXPRESSION IS REPLACED
TCHEB/ 300.000	2000.000/
PCHEB/   0.010	  98.692/
CHEB/4	4	-14.2644997255	 0.40650901 -0.02891338 -0.00551449/
CHEB/  1.98011086E+01   5.87096437E-01  -5.58162131E-02  -1.02154576E-02/
CHEB/-1.2446558   0.54975913 -0.03318198 -0.00699972/
CHEB/-1.14838029  0.40763376 -0.00142801 -0.00156152/
C6H10M1+C5H7J5<=>C6H9J9+C5H8M68	   1.000E+05	0.00	  -4.184E+04	
CH4M2+C5H7J5<=>CH3J6+C5H8M68	   1.530E+14	0.00	  -1.280E+05	
!ALTERNATIVE REACTION CONSTANT SET 1:   1.000E+05	0.00	  -4.184E+04	
C5H7J5+C6H9J9<=>C5H8M68+C6H8M111	   2.290E+13	-0.35	   5.439E+02	
!ALTERNATIVE REACTION CONSTANT SET 1:   3.000E+11	0.00	  -0.000E+00	
C6H10M1(+M)<=>C6H9J9+HJ10(+M)	0.0	0.0	0.0 !USING CHEBYSHEV COEFFICIENT, THE ARRHENIUS EXPRESSION IS REPLACED
TCHEB/ 300.000	2000.000/
PCHEB/   0.010	  98.692/
CHEB/4	4	-19.4562864634	 0.42582483 -0.04532055  0.0033949 /
CHEB/  2.31752438E+01   5.83347356E-01  -8.22306106E-02   8.18989430E-03/
CHEB/-0.87560515  0.58590182 -0.05322297  0.00249083/
CHEB/-0.88345586  0.486033   -0.01162688 -0.00369831/
C5H7J5+CH3J6(+M)<=>C6H9J9+HJ10(+M)	0.0	0.0	0.0 !USING CHEBYSHEV COEFFICIENT, THE ARRHENIUS EXPRESSION IS REPLACED
TCHEB/ 300.000	2000.000/
PCHEB/   0.010	  98.692/
CHEB/4	4	3.03067550142	-1.62345387 -0.03629404  0.00304441/
CHEB/ 6.7463965   0.53778462 -0.07487683  0.00796744/
CHEB/  1.06181776E+00   4.99786651E-01  -3.27616939E-02  -5.46483486E-04/
CHEB/ 0.16638838  0.37834347  0.01402386 -0.00689534/
CH4M2(+M)<=>CH3J6+HJ10(+M)	0.0	0.0	0.0 !USING CHEBYSHEV COEFFICIENT, THE ARRHENIUS EXPRESSION IS REPLACED
TCHEB/ 300.000	2000.000/
PCHEB/   0.010	  98.692/
CHEB/4	4	-31.6133226928	 1.90797998 -0.06127655 -0.0269915 /
CHEB/ 31.61485638   0.11628795   0.07545724   0.03200404/
CHEB/-0.18813342 -0.02820252 -0.01587229 -0.00518627/
CHEB/-0.08465026 -0.00148107 -0.00234188 -0.00186671/
H2M3+CH3J6<=>CH4M2+HJ10	   2.950E+12	0.00	  -5.899E+04	
!ALTERNATIVE REACTION CONSTANT SET 1:   8.100E+05	1.87	  -5.275E+04	
!ALTERNATIVE REACTION CONSTANT SET 2:   1.000E+05	0.00	  -4.184E+04	
H2M3+C5H7J5<=>HJ10+C5H8M68	   2.870E+12	0.00	  -1.071E+05	
!ALTERNATIVE REACTION CONSTANT SET 1:   1.000E+05	0.00	  -4.184E+04	
H2M3+C6H9J9<=>C6H10M1+HJ10	   1.820E+12	0.00	  -1.130E+05	
!ALTERNATIVE REACTION CONSTANT SET 1:   1.000E+05	0.00	  -4.184E+04	
C6H10M1(+M)<=>C6H9J9+HJ10(+M)	0.0	0.0	0.0 !USING CHEBYSHEV COEFFICIENT, THE ARRHENIUS EXPRESSION IS REPLACED
TCHEB/ 300.000	2000.000/
PCHEB/   0.010	  98.692/
CHEB/4	4	-19.7145825297	 0.49426006 -0.0463775  -0.00575623/
CHEB/  2.28211115E+01   7.14208672E-01  -8.49426407E-02  -9.19691125E-03/
CHEB/-1.23174334  0.66527048 -0.05325401 -0.00876629/
CHEB/-1.17847081  0.49208517 -0.00950303 -0.00529834/
C5H7J5+CH3J6(+M)<=>C6H9J9+HJ10(+M)	0.0	0.0	0.0 !USING CHEBYSHEV COEFFICIENT, THE ARRHENIUS EXPRESSION IS REPLACED
TCHEB/ 300.000	2000.000/
PCHEB/   0.010	  98.692/
CHEB/4	4	3.57923639949	-1.57642721 -0.03590856 -0.003358  /
CHEB/  6.28419409E+00   6.30279319E-01  -7.54502246E-02  -4.07861651E-03/
CHEB/ 1.09318517  0.54787861 -0.02801834 -0.00956912/
CHEB/ 0.1659657   0.37224358  0.0203072  -0.00936416/
C6H9J9(+M)<=>HJ10+C6H8M111(+M)	0.0	0.0	0.0 !USING CHEBYSHEV COEFFICIENT, THE ARRHENIUS EXPRESSION IS REPLACED
TCHEB/ 300.000	2000.000/
PCHEB/   0.010	  98.692/
CHEB/4	4	-10.3038190903	 0.34461624 -0.02234437 -0.00237287/
CHEB/  1.61378972E+01   5.28438908E-01  -7.48892344E-02   4.97526921E-03/
CHEB/-0.81428949  0.53269194 -0.04304669 -0.00478085/
CHEB/-0.87413535  0.41500284  0.00105771 -0.00654701/
C6H9J9+HJ10<=>H2M3+C6H8M111	   3.610E+12	0.00	  -0.000E+00	
!ALTERNATIVE REACTION CONSTANT SET 1:   3.000E+11	0.00	  -0.000E+00	
C5H8M68(+M)<=>C5H7J5+HJ10(+M)	0.0	0.0	0.0 !USING CHEBYSHEV COEFFICIENT, THE ARRHENIUS EXPRESSION IS REPLACED
TCHEB/ 300.000	2000.000/
PCHEB/   0.010	  98.692/
CHEB/4	4	-20.0905159048	 0.25184182 -0.01036882  0.00047236/
CHEB/  2.46781288E+01   3.11006597E-01  -1.60353734E-02   1.81856459E-03/
CHEB/ -3.28044856E-01   3.60791654E-01  -1.36186234E-02   1.98987654E-04/
CHEB/-0.41155302  0.35408312 -0.00835736 -0.00171914/
!Total reactions:19
END
