!This is an automatically generated mechanism using RMG
!Created on	Tue, 23 Mar 2010 14:11
ELEMENTS
C H N 
!Total elements:3
END
SPECIES
C6H10M1	CH4M2	H2M3	N2M4	CH3J6	
C5H7J5	C6H9J9	C6H9J119	C2H3J14	C4H6M310	
!Total species:10
END
REACTIONS KJOULES/MOLE MOLECULES
C6H10M1(+M)<=>C5H7J5+CH3J6(+M)	0.0	0.0	0.0 !USING CHEBYSHEV COEFFICIENT, THE ARRHENIUS EXPRESSION IS REPLACED
TCHEB/ 300.000	2000.000/
PCHEB/   0.010	  98.692/
CHEB/4	4	 -1.40098276E+01   3.41365646E-01  -2.83504185E-02   3.78586464E-03/
CHEB/  2.01491100E+01   4.62580678E-01  -5.44913123E-02   7.49809748E-03/
CHEB/-0.89238433  0.47310425 -0.03283817  0.00411678/
CHEB/ -8.54611487E-01   4.00738113E-01  -2.05277300E-03  -3.18777987E-04/
C6H10M1+CH3J6<=>CH4M2+C6H9J9	   2.730E+07	0.00	  -4.351E+04	
!ALTERNATIVE REACTION CONSTANT SET 1:   8.100E-01	1.87	   2.154E+04	
!ALTERNATIVE REACTION CONSTANT SET 2:   1.000E-01	0.00	  -4.184E+04	
C6H9J9(+M)<=>C6H9J119(+M)	0.0	0.0	0.0 !USING CHEBYSHEV COEFFICIENT, THE ARRHENIUS EXPRESSION IS REPLACED
TCHEB/ 300.000	2000.000/
PCHEB/   0.010	  98.692/
CHEB/4	4	-0.0895959   0.20230578 -0.08430659  0.02107622/
CHEB/ 7.16087573  0.28028621 -0.11799763  0.02839729/
CHEB/-0.13367982  0.17887599 -0.05010103  0.00092935/
CHEB/-0.08921487  0.10741257 -0.01271026 -0.00996172/
C6H9J9(+M)<=>C2H3J14+C4H6M310(+M)	0.0	0.0	0.0 !USING CHEBYSHEV COEFFICIENT, THE ARRHENIUS EXPRESSION IS REPLACED
TCHEB/ 300.000	2000.000/
PCHEB/   0.010	  98.692/
CHEB/4	4	-10.89117594  -1.30289939  -0.27440258   0.05932786/
CHEB/ 18.22842263   0.4185211   -0.07122449  -0.02250163/
CHEB/-0.27093786  0.31050824 -0.0339115  -0.01776011/
CHEB/-0.23714612  0.20119497 -0.00803155 -0.01206425/
C6H9J119(+M)<=>C2H3J14+C4H6M310(+M)	0.0	0.0	0.0 !USING CHEBYSHEV COEFFICIENT, THE ARRHENIUS EXPRESSION IS REPLACED
TCHEB/ 300.000	2000.000/
PCHEB/   0.010	  98.692/
CHEB/4	4	-4.22314429  0.57755751 -0.21421593  0.04085458/
CHEB/  1.33774501E+01   2.77029842E-01  -6.30264409E-03  -3.82856960E-02/
CHEB/-0.26151758  0.23252178 -0.00798796 -0.01951862/
CHEB/-0.19722037  0.15909796  0.00094034 -0.01011605/
C4H6M310(+M)<=>C2H3J14+C2H3J14(+M)	0.0	0.0	0.0 !USING CHEBYSHEV COEFFICIENT, THE ARRHENIUS EXPRESSION IS REPLACED
TCHEB/ 300.000	2000.000/
PCHEB/   0.010	  98.692/
CHEB/4	4	 -3.19607561E+01   1.41108173E-01  -2.98134521E-02   1.21146493E-03/
CHEB/  3.61424354E+01   1.85769342E-01  -4.30287676E-02   3.19600097E-03/
CHEB/-0.08463072  0.19699044 -0.03977528  0.00080931/
CHEB/-0.02977643  0.17551903 -0.02943308 -0.00182828/
!Total reactions:6
END
